/*---------------------------------------------------------------------------*\
| =========                 |                                                 |
| \\      /  F ield         | OpenFOAM: The Open Source CFD Toolbox           |
|  \\    /   O peration     | Version:  2206                                  |
|   \\  /    A nd           | Website:  www.openfoam.com                      |
|    \\/     M anipulation  |                                                 |
\*---------------------------------------------------------------------------*/
Build  : _76d719d1-20220624 OPENFOAM=2206 version=2206
Arch   : "LSB;label=32;scalar=64"
Exec   : checkMesh
Date   : Nov 26 2022
Time   : 23:31:14
Host   : LAPTOP-VT500VMG
PID    : 22979
I/O    : uncollated
Case   : /home/terjetl/OpenFOAM/terjetl-v2206/run/TEP4545_Project/FoamProject/blockMeshVortexShedding/templateCase
nProcs : 1
trapFpe: Floating point exception trapping enabled (FOAM_SIGFPE).
fileModificationChecking : Monitoring run-time modified files using timeStampMaster (fileModificationSkew 5, maxFileModificationPolls 20)
allowSystemOperations : Allowing user-supplied system call operations

// * * * * * * * * * * * * * * * * * * * * * * * * * * * * * * * * * * * * * //
Create time

Create mesh for time = 0

Time = 0

Mesh stats 
    points:           152948
    internal points:  0
    faces:            301621
    internal faces:   148673
    cells:            75049
    faces per cell:   6
    boundary patches: 9
    point zones:      0
    face zones:       0
    cell zones:       0

Overall number of cells of each type:
    hexahedra:     75049
    prisms:        0
    wedges:        0
    pyramids:      0
    tet wedges:    0
    tetrahedra:    0
    polyhedra:     0

Checking topology...
    Boundary definition OK.
    Cell to face addressing OK.
    Point usage OK.
    Upper triangular ordering OK.
    Face vertices OK.
    Number of regions: 1 (OK).

Checking patch topology for multiply connected surfaces...
    Patch               Faces    Points   Surface topology                  
    inlet               69       140      ok (non-closed singly connected)  
    outlet              69       140      ok (non-closed singly connected)  
    topWall             1149     2300     ok (non-closed singly connected)  
    lowerWall           1149     2300     ok (non-closed singly connected)  
    leadingEdge         23       48       ok (non-closed singly connected)  
    trailingEdge        23       48       ok (non-closed singly connected)  
    upperSurface        184      370      ok (non-closed singly connected)  
    lowerSurface        184      370      ok (non-closed singly connected)  
    frontAndBack        150098   152948   ok (non-closed singly connected)  

Checking faceZone topology for multiply connected surfaces...
    No faceZones found.

Checking basic cellZone addressing...
    No cellZones found.

Checking geometry...
    Overall domain bounding box (0 0 -0.0015) (0.5 0.03 0.0015)
    Mesh has 2 geometric (non-empty/wedge) directions (1 1 0)
    Mesh has 2 solution (non-empty) directions (1 1 0)
    All edges aligned with or perpendicular to non-empty directions.
    Boundary openness (-8.83425e-19 -3.11684e-16 1.80973e-14) OK.
    Max cell openness = 1.40025e-16 OK.
    Max aspect ratio = 1.00136 OK.
    Minimum face area = 1.89036e-07. Maximum face area = 1.30612e-06.  Face area magnitudes OK.
    Min volume = 5.67108e-10. Max volume = 5.67879e-10.  Total volume = 4.26e-05.  Cell volumes OK.
    Mesh non-orthogonality Max: 0 average: 0
    Non-orthogonality check OK.
    Face pyramids OK.
    Max skewness = 1.01995e-12 OK.
    Coupled point location match (average 0) OK.

Mesh OK.

End

