/*---------------------------------------------------------------------------*\
| =========                 |                                                 |
| \\      /  F ield         | OpenFOAM: The Open Source CFD Toolbox           |
|  \\    /   O peration     | Version:  2206                                  |
|   \\  /    A nd           | Website:  www.openfoam.com                      |
|    \\/     M anipulation  |                                                 |
\*---------------------------------------------------------------------------*/
Build  : _76d719d1-20220624 OPENFOAM=2206 version=2206
Arch   : "LSB;label=32;scalar=64"
Exec   : checkMesh
Date   : Nov 27 2022
Time   : 11:35:16
Host   : LAPTOP-2QBDDU7C
PID    : 18450
I/O    : uncollated
Case   : /home/jonas/OpenFOAM/TEP4545/fordypningsprosjekt/TEP4545_Project/FoamProject/blockMeshVortexShedding/templateCase
nProcs : 1
trapFpe: Floating point exception trapping enabled (FOAM_SIGFPE).
fileModificationChecking : Monitoring run-time modified files using timeStampMaster (fileModificationSkew 5, maxFileModificationPolls 20)
allowSystemOperations : Allowing user-supplied system call operations

// * * * * * * * * * * * * * * * * * * * * * * * * * * * * * * * * * * * * * //
Create time

Create mesh for time = 0

Time = 0

Mesh stats 
    points:           252028
    internal points:  0
    faces:            499931
    internal faces:   247903
    cells:            124639
    faces per cell:   6
    boundary patches: 9
    point zones:      0
    face zones:       0
    cell zones:       0

Overall number of cells of each type:
    hexahedra:     124639
    prisms:        0
    wedges:        0
    pyramids:      0
    tet wedges:    0
    tetrahedra:    0
    polyhedra:     0

Checking topology...
    Boundary definition OK.
    Cell to face addressing OK.
    Point usage OK.
    Upper triangular ordering OK.
    Face vertices OK.
    Number of regions: 1 (OK).

Checking patch topology for multiply connected surfaces...
    Patch               Faces    Points   Surface topology                  
    inlet               113      228      ok (non-closed singly connected)  
    outlet              113      228      ok (non-closed singly connected)  
    topWall             1126     2254     ok (non-closed singly connected)  
    lowerWall           1126     2254     ok (non-closed singly connected)  
    leadingEdge         23       48       ok (non-closed singly connected)  
    trailingEdge        23       48       ok (non-closed singly connected)  
    upperSurface        113      228      ok (non-closed singly connected)  
    lowerSurface        113      228      ok (non-closed singly connected)  
    frontAndBack        249278   252028   ok (non-closed singly connected)  

Checking faceZone topology for multiply connected surfaces...
    No faceZones found.

Checking basic cellZone addressing...
    No cellZones found.

Checking geometry...
    Overall domain bounding box (0 0 -0.0025) (0.5 0.05 0.0025)
    Mesh has 2 geometric (non-empty/wedge) directions (1 1 0)
    Mesh has 2 solution (non-empty) directions (1 1 0)
    All edges aligned with or perpendicular to non-empty directions.
    Boundary openness (3.99689e-19 3.42364e-16 2.16732e-13) OK.
    Max cell openness = 1.34599e-16 OK.
    Max aspect ratio = 1.02222 OK.
    Minimum face area = 1.93114e-07. Maximum face area = 2.22222e-06.  Face area magnitudes OK.
    Min volume = 9.6557e-10. Max volume = 9.87654e-10.  Total volume = 0.0001225.  Cell volumes OK.
    Mesh non-orthogonality Max: 0 average: 0
    Non-orthogonality check OK.
    Face pyramids OK.
    Max skewness = 9.99835e-13 OK.
    Coupled point location match (average 0) OK.

Mesh OK.

End

