/*---------------------------------------------------------------------------*\
| =========                 |                                                 |
| \\      /  F ield         | OpenFOAM: The Open Source CFD Toolbox           |
|  \\    /   O peration     | Version:  2206                                  |
|   \\  /    A nd           | Website:  www.openfoam.com                      |
|    \\/     M anipulation  |                                                 |
\*---------------------------------------------------------------------------*/
Build  : _76d719d1-20220624 OPENFOAM=2206 version=2206
Arch   : "LSB;label=32;scalar=64"
Exec   : checkMesh
Date   : Nov 27 2022
Time   : 14:58:12
Host   : pop-os
PID    : 99457
I/O    : uncollated
Case   : /home/terjetl/OpenFOAM/terjetl-v2206/run/TEP4545_Project/FoamProject/blockMeshVortexShedding/templateCase
nProcs : 1
trapFpe: Floating point exception trapping enabled (FOAM_SIGFPE).
fileModificationChecking : Monitoring run-time modified files using timeStampMaster (fileModificationSkew 5, maxFileModificationPolls 20)
allowSystemOperations : Allowing user-supplied system call operations

// * * * * * * * * * * * * * * * * * * * * * * * * * * * * * * * * * * * * * //
Create time

Create mesh for time = 0

Time = 0

Mesh stats 
    points:           248852
    internal points:  0
    faces:            493381
    internal faces:   244529
    cells:            122985
    faces per cell:   6
    boundary patches: 9
    point zones:      0
    face zones:       0
    cell zones:       0

Overall number of cells of each type:
    hexahedra:     122985
    prisms:        0
    wedges:        0
    pyramids:      0
    tet wedges:    0
    tetrahedra:    0
    polyhedra:     0

Checking topology...
    Boundary definition OK.
    Cell to face addressing OK.
    Point usage OK.
    Upper triangular ordering OK.
    Face vertices OK.
    Number of regions: 1 (OK).

Checking patch topology for multiply connected surfaces...
    Patch               Faces    Points   Surface topology                  
    inlet               113      228      ok (non-closed singly connected)  
    outlet              113      228      ok (non-closed singly connected)  
    topWall             1125     2252     ok (non-closed singly connected)  
    lowerWall           1125     2252     ok (non-closed singly connected)  
    leadingEdge         23       48       ok (non-closed singly connected)  
    trailingEdge        23       48       ok (non-closed singly connected)  
    upperSurface        180      362      ok (non-closed singly connected)  
    lowerSurface        180      362      ok (non-closed singly connected)  
    frontAndBack        245970   248852   ok (non-closed singly connected)  

Checking faceZone topology for multiply connected surfaces...
    No faceZones found.

Checking basic cellZone addressing...
    No cellZones found.

Checking geometry...
    Overall domain bounding box (0 0 -0.0025) (0.5 0.05 0.0025)
    Mesh has 2 geometric (non-empty/wedge) directions (1 1 0)
    Mesh has 2 solution (non-empty) directions (1 1 0)
    All edges aligned with or perpendicular to non-empty directions.
    Boundary openness (4.01877e-19 -4.65327e-16 7.44657e-14) OK.
    Max cell openness = 1.34003e-16 OK.
    Max aspect ratio = 1.02222 OK.
    Minimum face area = 1.93237e-07. Maximum face area = 2.22222e-06.  Face area magnitudes OK.
    Min volume = 9.66183e-10. Max volume = 9.87654e-10.  Total volume = 0.000121.  Cell volumes OK.
    Mesh non-orthogonality Max: 0 average: 0
    Non-orthogonality check OK.
    Face pyramids OK.
    Max skewness = 9.99201e-13 OK.
    Coupled point location match (average 0) OK.

Mesh OK.

End

